972.50 295.69 14.329
20.90 296.38 14.760 0.296 3.387
34.40 297.06 15.049 0.500 4.069
46.10 297.93 15.319 0.696 4.951
57.50 298.55 15.305 0.907 5.729
69.20 298.92 15.146 1.163 6.598
81.30 299.34 15.067 1.450 7.460
92.40 299.88 15.083 1.767 8.314
102.30 300.30 15.033 2.250 9.024
112.40 300.64 14.989 2.614 9.756
124.10 301.05 15.011 3.004 10.478
136.50 301.37 14.980 3.197 11.151
148.60 301.63 14.922 3.567 11.667
159.70 301.81 14.856 3.955 12.174
170.20 301.92 14.794 4.330 12.575
180.90 302.02 14.752 4.493 13.048
191.60 302.07 14.702 4.857 13.344
201.90 302.15 14.681 4.959 13.626
212.90 302.28 14.643 5.268 13.724
222.40 302.44 14.612 5.340 13.910
232.80 302.74 14.541 5.411 14.097
244.50 303.06 14.369 5.694 14.093
254.80 303.20 14.365 5.731 14.186
265.10 303.28 14.374 5.731 14.186
276.00 303.33 14.329 5.731 14.186
286.50 303.39 14.209 5.694 14.093
295.90 303.45 14.114 5.657 14.000
306.70 303.48 14.142 5.619 13.908
318.90 303.51 14.244 5.544 13.722
330.40 303.54 14.254 5.507 13.630
339.90 303.58 14.137 5.432 13.444
349.20 303.62 14.017 5.357 13.259
359.60 303.68 13.929 5.548 13.071
370.30 303.73 14.082 5.470 12.887
381.00 303.75 14.282 5.392 12.703
391.00 303.77 14.294 5.572 12.516
400.80 303.82 14.256 5.532 12.424
410.70 303.87 14.197 5.705 12.235
421.10 303.92 14.102 5.663 12.145
433.10 303.98 13.968 5.830 11.954
444.30 304.02 13.942 5.786 11.864
455.30 304.06 14.010 5.786 11.864
467.40 304.07 14.012 5.786 11.864
479.40 304.10 14.012 5.993 11.761
491.30 304.11 14.019 5.993 11.761
502.40 304.12 14.043 5.993 11.761
512.40 304.14 14.063 5.993 11.761
523.30 304.14 14.108 5.743 11.774
533.60 304.16 14.191 5.743 11.774
543.50 304.16 14.247 5.743 11.774
552.30 304.17 14.294 5.699 11.684
560.00 304.18 14.300 5.655 11.594
569.10 304.20 14.307 5.611 11.505
578.40 304.21 14.311 5.567 11.415
587.90 304.22 14.362 5.523 11.325
596.90 304.24 14.425 5.436 11.145
605.40 304.25 14.461 5.392 11.055
614.70 304.26 14.436 5.348 10.965
625.90 304.29 14.435 5.304 10.875
638.70 304.30 14.513 5.260 10.786
650.60 304.31 14.550 5.217 10.696
661.20 304.31 14.543 5.402 10.603
673.00 304.33 14.552 5.357 10.514
684.80 304.34 14.547 5.357 10.514
694.10 304.35 14.566 5.357 10.514
704.00 304.37 14.561 5.357 10.514
715.20 304.36 14.497 5.357 10.514
724.60 304.39 14.482 5.312 10.425
733.90 304.40 14.476 5.312 10.425
745.40 304.42 14.460 5.129 10.516
758.80 304.43 14.419 5.085 10.426
771.00 304.45 14.393 5.085 10.426
784.40 304.48 14.380 4.902 10.513
797.10 304.48 14.348 4.902 10.513
808.30 304.49 14.310 4.902 10.513
819.10 304.51 14.261 4.902 10.513
829.60 304.52 14.217 4.902 10.513
839.90 304.53 14.218 4.902 10.513
849.70 304.55 14.268 4.718 10.597
859.10 304.55 14.335 4.718 10.597
869.50 304.54 14.338 4.718 10.597
880.50 304.56 14.305 4.718 10.597
891.00 304.57 14.269 4.677 10.506
900.50 304.58 14.244 4.493 10.586
911.00 304.60 14.215 4.454 10.494
922.90 304.61 14.204 4.376 10.310
933.70 304.62 14.192 4.158 10.292
944.00 304.64 14.152 4.121 10.199
952.90 304.65 14.085 4.046 10.014
961.70 304.68 14.012 4.008 9.921
971.00 304.71 13.931 3.933 9.735
981.10 304.74 13.847 3.896 9.643
993.30 304.79 13.740 3.821 9.457
1008.40 304.86 13.552 3.946 9.297
1024.10 304.92 13.337 4.027 9.044
1037.60 304.95 13.217 3.986 8.953
1049.40 304.99 13.146 4.099 8.791
1060.90 305.03 13.083 4.165 8.539
1070.40 305.06 13.045 4.268 8.375
1079.70 305.07 13.015 4.366 8.211
1088.90 305.10 12.995 4.272 8.035
1099.30 305.13 12.923 4.363 7.872
1111.50 305.18 12.816 4.450 7.708
1122.70 305.23 12.691 4.350 7.534
1133.10 305.28 12.571 4.300 7.448
1143.90 305.34 12.484 4.326 7.200
1155.60 305.38 12.382 4.275 7.114
1166.30 305.43 12.293 4.172 6.943
1175.30 305.47 12.253 4.120 6.857
1183.40 305.48 12.233 4.017 6.686
1190.90 305.50 12.210 3.850 6.668
1199.00 305.54 12.138 3.750 6.495
1207.00 305.60 12.102 3.700 6.409
1214.60 305.63 12.077 3.600 6.235
1222.40 305.63 12.042 3.550 6.149
1230.70 305.65 12.010 3.450 5.976
1238.50 305.69 11.994 3.297 5.947
1247.80 305.72 11.974 3.200 5.772
1257.00 305.74 11.941 3.052 5.739
1264.80 305.78 11.909 2.906 5.702
1272.30 305.82 11.857 2.762 5.662
1280.30 305.85 11.790 2.620 5.619
1287.80 305.90 11.728 2.344 5.523
1295.60 305.94 11.619 2.114 5.508
1303.70 305.98 11.507 1.888 5.484
1311.70 306.00 11.392 1.571 5.479
1320.20 306.08 11.254 1.355 5.434
1328.50 306.14 11.145 1.069 5.497
1338.70 306.19 11.018 0.765 5.446
1350.20 306.24 10.832 0.564 5.370
1360.70 306.30 10.703 0.283 5.393
1370.90 306.35 10.607 0.094 5.399
1382.80 306.41 10.418 0.000 5.300
1395.10 306.53 10.259 -0.092 5.299
1406.00 306.61 10.157 -0.181 5.197
1415.80 306.67 9.998 -0.181 5.197
1424.40 306.72 9.909 -0.267 5.093
1433.40 306.77 9.908 -0.262 4.993
1441.60 306.80 9.872 -0.174 4.997
1449.60 306.83 9.774 -0.171 4.897
1458.10 306.86 9.659 -0.168 4.797
1466.00 306.90 9.584 -0.161 4.597
1473.50 306.93 9.539 -0.157 4.497
1480.70 306.97 9.526 -0.225 4.294
1489.70 307.01 9.471 -0.215 4.094
1499.40 307.06 9.380 -0.204 3.895
1509.90 307.11 9.231 -0.258 3.691
1519.90 307.20 9.038 -0.244 3.491
1530.10 307.28 8.744 -0.288 3.287
1541.40 307.38 8.403 -0.279 3.188
1551.80 307.48 8.192 -0.261 2.989
1562.30 307.57 8.051 -0.253 2.889
1573.50 307.65 7.888 -0.244 2.789
1584.20 307.69 7.843 -0.235 2.690
1595.20 307.71 7.836 -0.188 2.693
1606.60 307.74 7.823 -0.188 2.693
1617.30 307.78 7.764 -0.141 2.696
1627.20 307.83 7.726 -0.141 2.696
1637.00 307.85 7.722 -0.147 2.796
1645.30 307.88 7.715 -0.147 2.796
1653.40 307.92 7.673 -0.202 2.893
1663.20 307.97 7.622 -0.253 2.889
1674.30 308.00 7.656 -0.314 2.984
1686.70 308.01 7.820 -0.418 2.971
1698.90 308.02 7.998 -0.538 3.053
1709.90 308.05 8.078 -0.645 3.032
1719.80 308.08 8.025 -0.774 3.105
1730.60 308.12 7.918 -0.882 3.076
1742.70 308.16 7.771 -1.074 3.120
1754.00 308.22 7.613 -1.183 3.081
1764.60 308.28 7.417 -1.328 3.130
1776.80 308.38 7.179 -1.437 3.081
1788.90 308.46 7.047 -1.589 3.119
1799.80 308.52 7.037 -1.643 3.090
1808.70 308.56 7.039 -1.750 3.031
1815.70 308.62 7.063 -1.855 2.968
1823.00 308.70 7.064 -1.906 2.935
1829.30 308.74 7.000 -2.008 2.867
1836.30 308.74 7.105 -2.057 2.832
1843.70 308.75 7.288 -2.106 2.795
1851.20 308.79 7.266 -2.140 2.642
1858.70 308.83 7.080 -2.231 2.566
1865.90 308.88 6.916 -2.275 2.527
1873.00 308.90 6.838 -2.251 2.413
1881.20 308.93 6.766 -2.292 2.374
1889.30 308.96 6.713 -2.333 2.333
1897.80 308.98 6.706 -2.374 2.292
1906.80 309.05 6.713 -2.413 2.251
1915.00 309.11 6.616 -2.487 2.319
1923.10 309.19 6.522 -2.527 2.275
1931.20 309.26 6.446 -2.527 2.275
1939.30 309.33 6.249 -2.641 2.296
1949.50 309.45 5.889 -2.758 2.314
1960.90 309.58 5.590 -2.875 2.328
1972.80 309.70 5.465 -2.994 2.340
1985.70 309.74 5.729 -3.115 2.347
1998.10 309.71 6.131 -3.236 2.351
2009.90 309.71 6.358 -3.359 2.352
2020.80 309.69 6.492 -3.565 2.405
2030.90 309.66 6.700 -3.690 2.396
2042.40 309.62 6.941 -3.774 2.451
2053.20 309.61 7.028 -3.901 2.438
2063.50 309.60 7.163 -3.986 2.491
2074.20 309.59 7.336 -4.071 2.544
2085.30 309.60 7.383 -4.155 2.597
2097.10 309.64 7.371 -4.109 2.669
2108.30 309.67 7.352 -4.193 2.723
2116.90 309.69 7.299 -4.145 2.796
2123.40 309.72 7.253 -4.178 2.925
2130.00 309.74 7.225 -4.178 2.925
2138.20 309.78 7.233 -4.126 2.998
2147.80 309.77 7.347 -4.126 2.998
2158.20 309.74 7.591 -4.073 3.069
2167.30 309.72 7.809 -3.993 3.009
2175.40 309.72 7.892 -3.940 3.078
2183.20 309.72 7.930 -3.940 3.078
2191.40 309.73 7.975 -3.886 3.147
2199.70 309.73 8.002 -3.886 3.147
2207.40 309.75 7.977 -3.830 3.214
2214.70 309.80 7.953 -3.907 3.278
2222.20 309.86 7.997 -3.907 3.278
2229.50 309.95 7.916 -3.907 3.278
2236.80 310.01 7.680 -3.924 3.412
2244.00 310.08 7.471 -4.000 3.477
2251.80 310.16 7.145 -4.137 3.471
2259.90 310.23 6.927 -4.137 3.471
2267.50 310.27 6.934 -4.213 3.535
2275.00 310.33 6.772 -4.290 3.600
2282.90 310.50 6.174 -4.366 3.664
2290.90 310.71 5.215 -4.507 3.650
2298.10 310.96 4.099 -4.585 3.713
2305.70 311.23 3.193 -4.585 3.713
2313.30 311.35 2.892 -4.663 3.776
2320.60 311.35 2.878 -4.741 3.839
2328.50 311.38 2.922 -4.749 3.985
2336.10 311.41 3.022 -4.749 3.985
2343.20 311.40 3.140 -4.826 4.050
2350.30 311.38 3.304 -4.755 4.133
2357.70 311.35 3.597 -4.756 4.282
2365.30 311.31 3.922 -4.830 4.349
2372.40 311.33 4.032 -4.754 4.433
2380.10 311.38 3.938 -4.748 4.585
2388.30 311.46 3.756 -4.748 4.585
2396.00 311.54 3.585 -4.667 4.667
2403.20 311.62 3.556 -4.738 4.738
2410.80 311.66 3.583 -4.738 4.738
2418.30 311.67 3.592 -4.738 4.738
2426.40 311.68 3.596 -4.667 4.667
2434.70 311.66 3.723 -4.667 4.667
2441.80 311.62 4.078 -4.748 4.585
2449.00 311.58 4.428 -4.676 4.515
2456.40 311.59 4.526 -4.681 4.365
2464.10 311.68 4.443 -4.608 4.297
2471.50 311.80 4.094 -4.607 4.149
2478.40 311.90 3.686 -4.528 3.936
2484.90 311.98 3.350 -4.520 3.792
2491.50 312.07 3.173 -4.430 3.587
2499.10 312.18 3.082 -4.334 3.386
2506.70 312.30 2.900 -4.313 3.250
2514.10 312.38 2.859 -4.207 3.056
2521.50 312.45 2.950 -4.178 2.925
2529.30 312.51 3.119 -4.145 2.796
2537.60 312.60 3.323 -4.062 2.740
2545.60 312.73 3.338 -4.026 2.614
2553.60 312.86 3.275 -3.986 2.491
2561.40 312.95 3.293 -4.029 2.421
2569.00 313.07 3.338 -4.070 2.350
2577.40 313.18 3.384 -4.070 2.350
2585.80 313.29 3.446 -4.111 2.279
2594.10 313.37 3.537 -4.111 2.279
2602.80 313.44 3.697 -4.238 2.253
2612.80 313.49 3.861 -4.238 2.253
2623.50 313.53 3.890 -4.326 2.300
2632.20 313.56 3.992 -4.326 2.300
2639.70 313.59 4.149 -4.366 2.225
2647.50 313.60 4.154 -4.366 2.225
2655.90 313.63 4.142 -4.366 2.225
2664.60 313.66 4.182 -4.366 2.225
2673.80 313.68 4.273 -4.366 2.225
2681.70 313.70 4.368 -4.277 2.179
2688.90 313.70 4.413 -4.277 2.179
2696.50 313.70 4.538 -4.188 2.134
2704.40 313.72 4.749 -4.099 2.088
2713.00 313.74 4.915 -4.045 1.973
2721.00 313.77 5.026 -3.955 1.929
2728.60 313.78 5.071 -3.955 1.929
2736.60 313.78 5.094 -3.897 1.817
2743.90 313.81 5.138 -3.806 1.775
2750.20 313.82 5.175 -3.837 1.708
2756.50 313.84 5.197 -3.746 1.668
2763.70 313.86 5.232 -3.774 1.602
2771.50 313.88 5.260 -3.682 1.563
2778.80 313.93 5.319 -3.682 1.563
2785.90 313.96 5.340 -3.682 1.563
2792.70 313.98 5.333 -3.682 1.563
2799.70 314.00 5.341 -3.682 1.563
2807.10 314.02 5.357 -3.774 1.602
2815.00 314.05 5.369 -3.774 1.602
2823.30 314.08 5.352 -3.746 1.668
2831.40 314.13 5.269 -3.746 1.668
2839.40 314.18 5.069 -3.837 1.708
2846.40 314.23 4.843 -3.806 1.775
2853.90 314.27 4.740 -3.806 1.775
2861.10 314.30 4.791 -3.775 1.841
2868.50 314.36 4.739 -3.775 1.841
2876.00 314.42 4.619 -3.742 1.907
2883.60 314.47 4.665 -3.742 1.907
2891.50 314.51 4.785 -3.708 1.972
2899.80 314.53 5.000 -3.708 1.972
2907.70 314.55 5.168 -3.673 2.036
2915.30 314.57 5.191 -3.637 2.100
2923.10 314.57 5.164 -3.600 2.163
2931.00 314.58 5.118 -3.686 2.215
2938.30 314.60 5.087 -3.647 2.279
2945.00 314.62 5.058 -3.606 2.342
2952.20 314.64 5.023 -3.565 2.405
2959.40 314.68 5.007 -3.522 2.466
2967.00 314.69 4.998 -3.479 2.527
2974.60 314.70 4.958 -3.434 2.588
2982.30 314.73 4.920 -3.434 2.588
2990.80 314.77 4.898 -3.388 2.647
2999.70 314.80 4.954 -3.342 2.706
3008.60 314.80 4.962 -3.294 2.764
3016.90 314.82 4.946 -3.245 2.821
3024.60 314.87 4.920 -3.321 2.887
3032.00 314.93 4.868 -3.270 2.944
3039.40 314.96 4.811 -3.270 2.944
3047.30 314.98 4.762 -3.218 3.001
3055.00 315.00 4.710 -3.218 3.001
3062.10 315.01 4.655 -3.237 3.126
3069.50 315.03 4.628 -3.237 3.126
3077.70 315.05 4.639 -3.182 3.182
3085.70 315.08 4.641 -3.253 3.253
3093.90 315.10 4.612 -3.253 3.253
3102.10 315.13 4.544 -3.323 3.323
3110.60 315.14 4.463 -3.323 3.323
3119.70 315.18 4.428 -3.394 3.394
3129.00 315.20 4.412 -3.465 3.465
3137.90 315.21 4.385 -3.525 3.404
3146.50 315.23 4.386 -3.597 3.473
3155.90 315.26 4.400 -3.730 3.478
3165.90 315.27 4.433 -3.803 3.546
3177.20 315.29 4.567 -3.864 3.479
3189.90 315.34 4.674 -3.939 3.546
3203.50 315.36 4.662 -4.013 3.613
3215.70 315.36 4.638 -4.013 3.613
3226.60 315.38 4.637 -4.013 3.613
3238.20 315.40 4.640 -4.013 3.613
3249.00 315.42 4.648 -4.013 3.613
3257.60 315.40 4.652 -4.013 3.613
3265.70 315.41 4.674 -3.876 3.615
3273.40 315.45 4.693 -3.803 3.546
3281.30 315.47 4.711 -3.741 3.612
3290.40 315.48 4.735 -3.669 3.543
3299.10 315.50 4.729 -3.597 3.473
3306.90 315.53 4.702 -3.465 3.465
3315.20 315.54 4.666 -3.394 3.394
3323.10 315.58 4.582 -3.323 3.323
3330.30 315.63 4.424 -3.253 3.253
3337.60 315.67 4.294 -3.182 3.182
3344.90 315.71 4.251 -3.182 3.182
3352.50 315.73 4.280 -3.056 3.165
3359.90 315.76 4.305 -3.056 3.165
3367.00 315.77 4.294 -2.987 3.093
3373.90 315.80 4.286 -2.987 3.093
3381.00 315.84 4.270 -2.987 3.093
3387.80 315.85 4.236 -2.987 3.093
3395.00 315.84 4.227 -2.933 3.145
3402.40 315.86 4.233 -2.864 3.072
3410.00 315.88 4.231 -2.864 3.072
3418.30 315.90 4.225 -2.864 3.072
3426.60 315.93 4.207 -2.864 3.072
3434.90 315.95 4.201 -2.796 2.999
3442.90 315.96 4.202 -2.796 2.999
3450.60 315.96 4.226 -2.796 2.999
3458.60 316.01 4.251 -2.796 2.999
3466.70 316.03 4.225 -2.743 3.047
3474.80 316.04 4.236 -2.677 2.973
3482.70 316.07 4.311 -2.677 2.973
3490.20 316.07 4.352 -2.624 3.019
3498.20 316.09 4.370 -2.624 3.019
3506.10 316.10 4.389 -2.571 3.064
3514.40 316.10 4.399 -2.571 3.064
3523.10 316.13 4.440 -2.517 3.109
3531.30 316.17 4.465 -2.463 3.152
3538.30 316.16 4.439 -2.463 3.152
3546.30 316.15 4.424 -2.407 3.195
3554.40 316.17 4.410 -2.407 3.195
3562.20 316.20 4.392 -2.351 3.236
3570.50 316.22 4.359 -2.410 3.317
3578.20 316.24 4.307 -2.352 3.359
3585.60 316.26 4.262 -2.294 3.277
3593.20 316.30 4.195 -2.294 3.277
3601.00 316.34 4.098 -2.294 3.277
3608.90 316.40 4.091 -2.294 3.277
3616.50 316.41 4.123 -2.237 3.195
3623.70 316.39 4.141 -2.292 3.155
3631.10 316.39 4.164 -2.292 3.155
3639.20 316.40 4.179 -2.234 3.074
3647.60 316.44 4.165 -2.234 3.074
3655.50 316.47 4.133 -2.227 2.955
3663.00 316.48 4.159 -2.167 2.875
3670.60 316.49 4.201 -2.167 2.875
3677.90 316.49 4.191 -2.106 2.795
3685.60 316.48 4.187 -2.106 2.795
3693.40 316.49 4.229 -2.046 2.715
3701.40 316.52 4.268 -2.046 2.715
3709.40 316.55 4.260 -1.940 2.670
3717.50 316.59 4.245 -1.940 2.670
3726.00 316.61 4.242 -1.881 2.589
3734.00 316.63 4.232 -1.881 2.589
3741.60 316.64 4.182 -1.822 2.508
3748.80 316.66 4.125 -1.822 2.508
3756.00 316.68 4.056 -1.822 2.508
3763.80 316.74 4.001 -1.866 2.476
3771.90 316.75 3.962 -1.866 2.476
3779.50 316.76 3.892 -1.909 2.443
3786.50 316.79 3.871 -1.951 2.409
3793.80 316.78 3.902 -1.951 2.409
3801.50 316.81 3.904 -1.993 2.375
3809.60 316.82 3.907 -2.034 2.340
3817.40 316.82 3.900 -2.034 2.340
3825.20 316.81 3.888 -2.074 2.304
3832.90 316.81 3.892 -2.074 2.304
3841.00 316.81 3.883 -2.114 2.267
3849.30 316.83 3.858 -2.046 2.194
3857.80 316.86 3.853 -2.046 2.194
3865.90 316.84 3.844 -2.046 2.194
3873.50 316.84 3.821 -1.978 2.121
3881.50 316.83 3.786 -1.978 2.121
3889.80 316.86 3.760 -1.978 2.121
3898.60 316.90 3.722 -1.978 2.121
3907.50 316.95 3.694 -1.978 2.121
3915.10 316.97 3.673 -1.940 2.155
3923.00 316.99 3.679 -1.940 2.155
3931.30 316.98 3.699 -1.940 2.155
3939.30 316.99 3.725 -1.940 2.155
3947.10 316.99 3.733 -1.903 2.189
3954.80 317.01 3.745 -1.903 2.189
3962.60 317.03 3.769 -1.928 2.298
3970.50 317.01 3.762 -1.928 2.298
3977.80 317.03 3.764 -1.888 2.331
3985.60 317.06 3.817 -1.951 2.409
3993.50 317.06 3.852 -1.909 2.443
4001.80 317.07 3.847 -1.970 2.522
4009.90 317.08 3.820 -1.986 2.635
4017.20 317.10 3.794 -2.046 2.715
4025.00 317.12 3.764 -2.046 2.715
4033.00 317.15 3.737 -2.106 2.795
4041.00 317.18 3.696 -2.116 2.912
4048.90 317.19 3.669 -2.175 2.993
4056.90 317.22 3.662 -2.234 3.074
4065.00 317.24 3.628 -2.292 3.155
4072.00 317.25 3.583 -2.292 3.155
4079.10 317.30 3.555 -2.351 3.236
4086.60 317.33 3.534 -2.410 3.317
4094.50 317.33 3.531 -2.469 3.398
4102.00 317.36 3.517 -2.528 3.354
4109.90 317.39 3.565 -2.588 3.434
4118.30 317.41 3.748 -2.588 3.434
4126.50 317.42 3.966 -2.648 3.514
4134.80 317.43 4.117 -2.709 3.467
4143.00 317.44 4.201 -2.709 3.467
4151.30 317.44 4.250 -2.709 3.467
4159.80 317.46 4.283 -2.709 3.467
4168.70 317.48 4.347 -2.769 3.419
4177.20 317.50 4.362 -2.769 3.419
4185.50 317.51 4.352 -2.706 3.342
4193.80 317.54 4.336 -2.706 3.342
4201.40 317.57 4.320 -2.643 3.264
4209.40 317.58 4.300 -2.586 3.310
4217.40 317.58 4.269 -2.524 3.231
4224.50 317.62 4.260 -2.524 3.231
4232.10 317.67 4.274 -2.407 3.195
4239.50 317.71 4.263 -2.407 3.195
4247.40 317.74 4.235 -2.407 3.195
4255.10 317.77 4.189 -2.292 3.155
4262.90 317.79 4.136 -2.292 3.155
4270.70 317.78 4.082 -2.292 3.155
4278.30 317.81 4.055 -2.237 3.195
4285.70 317.80 4.038 -2.237 3.195
4293.40 317.83 4.032 -2.294 3.277
4301.00 317.83 4.020 -2.237 3.316
4308.40 317.84 4.014 -2.237 3.316
4316.20 317.87 3.999 -2.293 3.399
4323.60 317.88 3.949 -2.233 3.439
4331.00 317.88 3.883 -2.233 3.439
4338.00 317.90 3.876 -2.233 3.439
4345.00 317.91 3.883 -2.173 3.477
4353.20 317.91 3.881 -2.173 3.477
4361.50 317.96 3.893 -2.112 3.514
4369.20 317.97 3.883 -2.112 3.514
4376.80 317.95 3.867 -2.060 3.429
4384.80 317.95 3.850 -2.000 3.464
4392.30 317.98 3.825 -1.950 3.377
4400.00 318.03 3.806 -1.950 3.377
4408.00 318.05 3.811 -1.842 3.324
4415.40 318.06 3.823 -1.842 3.324
4423.20 318.08 3.829 -1.794 3.236
4430.30 318.09 3.822 -1.794 3.236
4437.30 318.09 3.795 -1.745 3.149
4445.50 318.12 3.776 -1.745 3.149
4453.60 318.14 3.795 -1.697 3.061
4461.40 318.16 3.818 -1.700 2.944
4469.50 318.20 3.804 -1.700 2.944
4477.20 318.20 3.772 -1.650 2.858
4485.00 318.21 3.767 -1.648 2.743
4493.00 318.21 3.804 -1.696 2.714
4501.20 318.19 3.862 -1.643 2.629
4508.60 318.20 3.886 -1.634 2.516
4515.60 318.22 3.873 -1.678 2.487
4522.20 318.24 3.815 -1.622 2.404
4529.70 318.26 3.750 -1.663 2.376
4537.80 318.30 3.689 -1.646 2.265
4545.50 318.31 3.618 -1.646 2.265
4553.80 318.36 3.577 -1.685 2.236
4561.90 318.42 3.582 -1.685 2.236
4569.00 318.43 3.581 -1.724 2.206
4576.40 318.43 3.531 -1.724 2.206
4584.20 318.44 3.473 -1.724 2.206
4591.50 318.45 3.464 -1.762 2.176
4598.90 318.49 3.490 -1.762 2.176
4606.30 318.50 3.494 -1.762 2.176
4612.90 318.50 3.471 -1.762 2.176
4619.50 318.54 3.456 -1.762 2.176
4627.10 318.54 3.449 -1.762 2.176
4635.10 318.54 3.430 -1.785 2.285
4642.60 318.54 3.409 -1.785 2.285
4650.70 318.57 3.413 -1.785 2.285
4658.80 318.58 3.421 -1.745 2.316
4666.20 318.59 3.427 -1.745 2.316
4673.30 318.59 3.430 -1.745 2.316
4680.80 318.58 3.434 -1.745 2.316
4688.10 318.59 3.442 -1.745 2.316
4695.20 318.61 3.441 -1.805 2.396
4701.70 318.62 3.436 -1.805 2.396
4708.90 318.64 3.425 -1.805 2.396
4715.90 318.67 3.406 -1.805 2.396
4723.30 318.66 3.388 -1.847 2.364
4731.10 318.66 3.383 -1.847 2.364
4738.20 318.69 3.382 -1.847 2.364
4745.10 318.68 3.382 -1.888 2.331
4752.20 318.68 3.410 -1.888 2.331
4759.40 318.68 3.444 -1.888 2.331
4767.00 318.69 3.462 -1.888 2.331
4774.90 318.70 3.461 -1.864 2.222
4782.80 318.70 3.459 -1.864 2.222
4789.80 318.73 3.451 -1.864 2.222
4796.60 318.73 3.440 -1.864 2.222
4803.10 318.76 3.438 -1.825 2.254
4809.70 318.77 3.419 -1.762 2.176
4817.50 318.80 3.396 -1.762 2.176
4825.10 318.81 3.367 -1.762 2.176
4832.70 318.84 3.343 -1.762 2.176
4839.60 318.87 3.337 -1.724 2.206
4846.60 318.92 3.335 -1.724 2.206
4853.50 318.94 3.323 -1.724 2.206
4860.40 318.94 3.312 -1.662 2.128
4867.90 318.95 3.300 -1.662 2.128
4875.20 318.98 3.285 -1.662 2.128
4882.80 318.98 3.260 -1.662 2.128
4890.00 318.98 3.253 -1.601 2.049
4897.40 319.01 3.268 -1.601 2.049
4905.80 319.06 3.273 -1.601 2.049
4913.10 319.11 3.235 -1.601 2.049
4919.50 319.16 3.169 -1.601 2.049
4926.20 319.21 3.130 -1.601 2.049
4933.30 319.27 3.088 -1.601 2.049
4940.30 319.30 3.044 -1.539 1.970
4947.50 319.33 3.026 -1.539 1.970
4955.70 319.36 3.019 -1.505 1.997
4963.40 319.39 3.004 -1.505 1.997
4971.10 319.41 2.992 -1.469 2.023
4978.50 319.42 2.976 -1.434 2.048
4985.90 319.46 2.947 -1.398 2.073
4994.20 319.54 2.920 -1.307 2.013
5002.00 319.57 2.919 -1.272 2.035
5008.80 319.56 2.918 -1.185 1.971
5016.50 319.59 2.907 -1.150 1.992
5024.20 319.65 2.913 -1.067 1.924
5031.60 319.67 2.909 -1.067 1.924
5039.70 319.71 2.914 -0.986 1.854
5048.50 319.74 2.921 -0.939 1.766
5056.90 319.80 2.907 -0.921 1.662
5064.90 319.80 2.876 -0.921 1.662
5071.90 319.75 2.852 -0.900 1.559
5078.70 319.76 2.855 -0.876 1.457
5086.30 319.80 2.860 -0.871 1.342
5093.70 319.89 2.864 -0.918 1.311
5100.40 319.93 2.872 -0.882 1.214
5107.30 319.90 2.865 -0.862 1.103
5114.80 319.90 2.854 -0.900 1.072
5122.70 319.91 2.846 -0.870 0.966
5130.60 319.88 2.835 -0.903 0.935
5138.60 319.85 2.831 -0.919 0.919
5146.00 319.87 2.827 -0.878 0.818
5153.10 319.87 2.822 -0.892 0.803
5160.30 319.87 2.815 -0.906 0.787
5167.60 319.88 2.802 -0.843 0.707
5175.30 319.89 2.793 -0.855 0.692
5182.40 319.91 2.794 -0.788 0.616
5189.90 319.90 2.784 -0.788 0.616
5196.90 319.94 2.778 -0.709 0.554
5203.60 319.94 2.771 -0.699 0.566
5211.40 320.00 2.778 -0.679 0.590
5219.20 320.03 2.781 -0.575 0.556
5227.40 320.08 2.788 -0.535 0.595
5235.10 320.10 2.782 -0.493 0.630
5242.50 320.12 2.771 -0.424 0.678
5249.60 320.19 2.758 -0.351 0.719
5257.30 320.21 2.724 -0.287 0.747
5265.30 320.25 2.691 -0.248 0.865
5273.00 320.30 2.667 -0.208 0.978
5280.80 320.34 2.641 -0.139 0.990
5288.40 320.40 2.625 -0.115 1.094
5296.00 320.44 2.613 -0.063 1.198
5303.70 320.46 2.592 -0.045 1.299
5311.30 320.51 2.586 0.000 1.300
5319.50 320.56 2.592 0.049 1.399
5327.90 320.59 2.597 0.073 1.398
5335.80 320.63 2.588 0.122 1.395
5343.80 320.66 2.578 0.146 1.392
5351.00 320.74 2.566 0.195 1.386
5358.70 320.79 2.520 0.219 1.383
5366.70 320.82 2.472 0.243 1.379
5374.20 320.86 2.446 0.291 1.369
5382.10 320.92 2.416 0.291 1.369
5390.10 320.97 2.374 0.315 1.364
5398.10 321.04 2.337 0.315 1.364
5405.60 321.09 2.309 0.315 1.364
5413.30 321.12 2.284 0.270 1.272
5421.90 321.20 2.276 0.248 1.276
5430.70 321.26 2.294 0.226 1.280
5438.80 321.29 2.315 0.181 1.287
5447.30 321.29 2.335 0.171 1.390
5455.10 321.31 2.336 0.122 1.395
5462.20 321.27 2.323 0.098 1.397
5469.60 321.26 2.340 0.049 1.399
5477.10 321.29 2.346 0.024 1.400
5484.50 321.30 2.347 -0.024 1.400
5492.20 321.30 2.352 -0.049 1.399
5500.00 321.29 2.350 -0.098 1.397
5508.40 321.28 2.331 -0.146 1.392
5516.30 321.32 2.330 -0.195 1.386
5524.60 321.35 2.336 -0.243 1.379
5533.30 321.32 2.330 -0.291 1.369
5542.10 321.29 2.351 -0.362 1.352
5550.40 321.33 2.392 -0.409 1.339
5559.00 321.34 2.400 -0.513 1.410
5567.90 321.29 2.383 -0.562 1.391
5577.00 321.31 2.371 -0.651 1.462
5585.90 321.33 2.363 -0.701 1.438
5594.50 321.35 2.364 -0.772 1.515
5603.10 321.36 2.383 -0.845 1.589
5611.90 321.37 2.394 -0.873 1.574
5620.10 321.37 2.397 -0.921 1.662
5628.20 321.38 2.406 -1.000 1.732
5636.70 321.37 2.406 -1.030 1.714
5644.90 321.38 2.400 -1.082 1.800
5652.30 321.39 2.392 -1.113 1.781
5660.10 321.37 2.395 -1.166 1.866
5668.40 321.37 2.401 -1.253 1.929
5676.60 321.39 2.407 -1.253 1.929
5684.70 321.39 2.418 -1.342 1.990
5692.50 321.39 2.425 -1.342 1.990
5700.10 321.38 2.428 -1.398 2.073
5707.80 321.40 2.442 -1.398 2.073
5715.20 321.40 2.458 -1.454 2.155
5723.10 321.38 2.483 -1.416 2.181
5730.90 321.39 2.510 -1.378 2.205
5738.60 321.42 2.540 -1.391 2.314
5746.90 321.45 2.573 -1.309 2.361
5755.70 321.46 2.601 -1.226 2.406
5764.00 321.49 2.617 -1.141 2.447
5772.30 321.53 2.627 -1.011 2.503
5780.10 321.58 2.635 -0.912 2.647
5787.90 321.60 2.635 -0.725 2.705
5796.20 321.58 2.624 -0.582 2.739
5804.20 321.63 2.614 -0.390 2.773
5812.70 321.71 2.606 -0.195 2.793
5820.90 321.75 2.585 0.000 2.900
5828.70 321.78 2.551 0.202 2.893
5836.70 321.87 2.513 0.418 2.971
5844.90 321.96 2.475 0.645 3.032
5852.60 322.04 2.447 0.828 3.091
5860.10 322.14 2.387 1.020 3.138
5868.70 322.31 2.277 1.218 3.174
5877.00 322.46 2.149 1.383 3.106
5884.40 322.53 2.056 1.534 3.146
5892.90 322.61 1.979 1.634 3.208
5901.40 322.69 1.917 1.794 3.236
5909.40 322.75 1.875 1.900 3.291
5917.50 322.80 1.849 1.957 3.257
5925.90 322.83 1.826 2.009 3.343
5934.30 322.86 1.811 2.067 3.307
5942.00 322.88 1.807 2.124 3.271
5949.70 322.92 1.812 2.124 3.271
5957.90 322.93 1.832 2.124 3.271
5966.50 322.95 1.838 2.181 3.233
5974.30 322.95 1.821 2.237 3.316
5982.30 322.96 1.811 2.294 3.277
5990.20 322.97 1.819 2.351 3.236
5997.90 322.96 1.844 2.407 3.195
6006.00 322.96 1.936 2.463 3.152
6014.00 322.94 2.091 2.517 3.109
6021.80 322.96 2.182 2.571 3.064
6030.20 322.99 2.248 2.743 3.047
6038.40 322.98 2.314 2.796 2.999
6046.00 322.97 2.366 2.899 2.899
6053.80 322.98 2.386 3.021 2.918
6061.80 323.04 2.356 3.121 2.810
6070.00 323.10 2.297 3.170 2.755
6077.90 323.17 2.229 3.294 2.764
6085.90 323.29 2.121 3.294 2.764
6094.00 323.37 1.972 3.342 2.706
6101.80 323.47 1.784 3.419 2.769
6109.70 323.59 1.719 3.419 2.769
6117.90 323.70 1.781 3.419 2.769
6125.60 323.80 1.775 3.447 2.893
6133.40 323.85 1.805 3.447 2.893
6140.80 323.88 1.899 3.472 3.018
6148.60 323.86 1.982 3.547 3.083
6157.00 323.91 2.042 3.493 3.145
6164.80 323.98 2.039 3.567 3.212
6172.20 324.08 1.980 3.510 3.274
6179.90 324.16 1.923 3.510 3.274
6187.70 324.20 1.876 3.525 3.404
6196.00 324.25 1.831 3.525 3.404
6203.20 324.32 1.803 3.525 3.404
6210.10 324.38 1.772 3.453 3.334
6218.10 324.46 1.701 3.453 3.334
6226.90 324.62 1.581 3.437 3.205
6234.60 324.74 1.523 3.437 3.205
6242.20 324.87 1.491 3.418 3.078
6249.70 324.93 1.466 3.396 2.952
6257.90 324.96 1.471 3.371 2.828
6266.50 324.99 1.483 3.342 2.706
6275.10 324.99 1.491 3.310 2.586
6283.40 325.01 1.506 3.317 2.410
6291.00 325.06 1.532 3.359 2.352
6298.30 325.06 1.543 3.316 2.237
6306.20 325.03 1.541 3.392 2.120
6314.70 325.09 1.530 3.343 2.009
6322.90 325.21 1.505 3.343 2.009
6330.40 325.29 1.482 3.377 1.950
6337.60 325.38 1.481 3.377 1.950
6345.40 325.45 1.488 3.324 1.842
6353.70 325.44 1.478 3.324 1.842
6361.70 325.42 1.467 3.291 1.900
6369.70 325.47 1.452 3.291 1.900
6377.80 325.57 1.434 3.291 1.900
6385.20 325.70 1.421 3.291 1.900
6392.80 325.78 1.401 3.257 1.957
6400.70 325.82 1.405 3.257 1.957
6409.10 325.80 1.425 3.257 1.957
6416.90 325.81 1.439 3.257 1.957
6423.70 325.81 1.445 3.172 1.906
6431.40 325.83 1.438 3.172 1.906
6438.80 325.84 1.417 3.172 1.906
6446.50 325.85 1.384 3.204 1.850
6455.00 325.88 1.356 3.236 1.794
6463.20 325.89 1.335 3.267 1.737
6470.80 325.91 1.318 3.208 1.634
6478.30 325.92 1.309 3.236 1.578
6485.80 325.95 1.299 3.263 1.521
6493.90 325.99 1.285 3.197 1.424
6502.20 326.03 1.271 3.245 1.311
6509.90 326.06 1.256 3.174 1.218
6517.30 326.11 1.235 3.195 1.163
6524.30 326.11 1.212 3.120 1.074
6531.70 326.14 1.192 3.138 1.020
6539.10 326.17 1.169 3.043 0.989
6546.60 326.22 1.139 3.060 0.936
6554.20 326.32 1.103 3.060 0.936
6561.80 326.42 1.044 2.965 0.906
6569.30 326.57 0.954 2.965 0.906
6576.50 326.65 0.897 2.965 0.906
6584.00 326.70 0.867 2.869 0.877
6591.00 326.74 0.841 2.853 0.927
6598.50 326.81 0.832 2.853 0.927
6606.30 326.85 0.832 2.837 0.977
6613.80 326.80 0.823 2.819 1.026
6621.40 326.85 0.809 2.819 1.026
6629.10 326.92 0.794 2.801 1.075
6636.80 326.94 0.781 2.782 1.124
6644.60 326.95 0.770 2.762 1.172
6652.40 327.03 0.767 2.741 1.220
6660.00 327.12 0.758 2.628 1.226
6667.30 327.13 0.740 2.607 1.271
6674.30 327.13 0.731 2.495 1.271
6682.00 327.16 0.724 2.384 1.268
6690.80 327.21 0.715 2.296 1.221
6699.10 327.21 0.707 2.187 1.212
6706.60 327.24 0.711 2.078 1.200
6713.90 327.30 0.712 1.992 1.150
6721.30 327.32 0.706 1.886 1.133
6728.70 327.29 0.700 1.800 1.082
6736.20 327.29 0.692 1.696 1.060
6743.50 327.29 0.687 1.611 1.007
6750.70 327.29 0.683 1.526 0.954
6758.10 327.33 0.679 1.526 0.954
6765.40 327.36 0.668 1.442 0.901
6772.70 327.38 0.662 1.357 0.848
6780.40 327.41 0.658 1.272 0.795
6788.00 327.46 0.653 1.286 0.773
6794.90 327.43 0.643 1.200 0.721
6802.10 327.42 0.639 1.137 0.630
6809.60 327.41 0.635 1.148 0.610
6817.10 327.42 0.632 1.088 0.507
6824.50 327.44 0.630 1.020 0.412
6832.00 327.47 0.628 1.046 0.340
6839.30 327.48 0.627 0.970 0.242
6846.50 327.51 0.626 0.988 0.156
6853.90 327.61 0.630 0.899 0.047
6861.50 327.67 0.638 0.899 -0.047
6868.90 327.71 0.649 0.886 -0.156
6876.40 327.78 0.642 0.865 -0.248
6884.20 327.85 0.625 0.840 -0.323
6892.00 327.90 0.622 0.899 -0.438
6899.20 327.92 0.633 0.866 -0.500
6906.10 327.97 0.665 0.839 -0.545
6913.30 328.01 0.700 0.890 -0.647
6920.70 328.13 0.713 0.867 -0.677
6928.10 328.26 0.698 0.843 -0.707
6935.90 328.33 0.675 0.906 -0.787
6943.50 328.39 0.672 0.892 -0.803
6950.80 328.42 0.679 0.863 -0.834
6958.20 328.47 0.692 0.849 -0.849
6965.70 328.51 0.706 0.903 -0.935
6973.00 328.52 0.706 0.887 -0.951
6980.30 328.52 0.694 0.853 -0.981
6987.80 328.52 0.682 0.836 -0.996
6994.90 328.53 0.674 0.800 -1.024
7001.70 328.53 0.665 0.764 -1.052
7008.70 328.54 0.656 0.727 -1.078
7016.30 328.57 0.660 0.670 -1.114
7023.80 328.60 0.671 0.630 -1.137
7030.50 328.59 0.662 0.636 -1.247
7037.70 328.58 0.630 0.569 -1.279
7045.10 328.61 0.601 0.524 -1.298
7052.30 328.66 0.563 0.456 -1.324
7059.60 328.69 0.508 0.409 -1.339
7067.30 328.71 0.453 0.388 -1.449
7074.90 328.71 0.409 0.337 -1.462
7081.90 328.71 0.378 0.286 -1.472
7088.60 328.74 0.356 0.235 -1.482
7096.00 328.81 0.339 0.195 -1.588
7103.50 328.82 0.330 0.139 -1.594
7110.70 328.80 0.317 0.119 -1.696
7118.10 328.85 0.291 0.089 -1.698
7125.80 328.94 0.264 0.031 -1.800
7133.30 328.98 0.251 -0.000 -1.800
7140.00 329.01 0.238 -0.031 -1.800
7147.40 328.99 0.220 -0.066 -1.899
7154.60 328.99 0.206 -0.133 -1.895
7161.80 329.02 0.200 -0.209 -1.989
7169.20 329.10 0.204 -0.244 -1.985
7176.80 329.17 0.208 -0.329 -2.074
7184.70 329.26 0.191 -0.437 -2.054
7192.50 329.38 0.172 -0.532 -2.135
7199.70 329.47 0.165 -0.606 -2.115
7206.50 329.51 0.163 -0.711 -2.187
7214.60 329.51 0.163 -0.787 -2.161
7223.10 329.58 0.163 -0.862 -2.133
7231.10 329.65 0.162 -0.976 -2.193
7238.60 329.66 0.159 -1.052 -2.157
7245.90 329.66 0.159 -1.090 -2.138
7252.70 329.65 0.157 -1.127 -2.119
7259.60 329.73 0.153 -1.164 -2.099
7267.20 329.76 0.147 -1.164 -2.099
7274.50 329.81 0.143 -1.200 -2.078
7281.20 329.86 0.140 -1.200 -2.078
7288.40 329.88 0.136 -1.200 -2.078
7295.50 329.97 0.134 -1.200 -2.078
7302.70 330.07 0.132 -1.212 -2.187
7310.10 330.16 0.130 -1.212 -2.187
7317.20 330.24 0.128 -1.174 -2.207
7324.50 330.26 0.127 -1.221 -2.296
7331.80 330.28 0.126 -1.180 -2.317
7339.50 330.32 0.125 -1.184 -2.427
7347.50 330.40 0.124 -1.141 -2.447
7355.30 330.44 0.121 -1.094 -2.577
7363.20 330.50 0.121 -1.049 -2.596
7370.60 330.54 0.122 -1.039 -2.707
7377.80 330.59 0.123 -1.026 -2.819
7385.50 330.61 0.123 -0.977 -2.837